# File generated by Flopy version 3.10.0.dev5 on 10/29/2025 at 13:54:47.
BEGIN options
END options

BEGIN packages
  obs6  ./gwe.obs  obs
  oc6  ./gwe.oc  oc
  ssm6  ./gwe.ssm  ssm
  est6  ./gwe.est  est
  cnd6  ./gwe.cnd  cnd
  adv6  ./gwe.adv  adv
  ic6  ./gwe.ic  ic  
 # FMI6   gwe.fmi       fmi
  disv6  ./gwe.disv  disv-gwe
END packages

