# File generated by Flopy version 3.10.0.dev5 on 10/29/2025 at 13:54:48.
BEGIN options
END options

BEGIN GRIDDATA
  strt
    OPEN/CLOSE  'gwe.ic_strt.txt'  FACTOR  1.0
END GRIDDATA

