# File generated by Flopy version 3.10.0.dev5 on 10/29/2025 at 13:54:48.
BEGIN OPTIONS
  NOGRB
END OPTIONS

BEGIN DIMENSIONS
  NLAY  1
  NCPL  13417
  NVERT  26966
END DIMENSIONS

BEGIN GRIDDATA
  top
    OPEN/CLOSE  'gwe.disv_top.txt'  FACTOR  1.0
  botm
    OPEN/CLOSE  'gwe.disv_botm.txt'  FACTOR  1.0
END GRIDDATA

BEGIN VERTICES
    OPEN/CLOSE  'gwe.disv_vertices.txt'
END VERTICES

BEGIN CELL2D
    OPEN/CLOSE  'gwe.disv_cell2d.txt'
END CELL2D

