# File generated by Flopy version 3.10.0.dev5 on 10/29/2025 at 13:34:04.
BEGIN options
END options

BEGIN dimensions
  MAXBOUND  4
END dimensions

BEGIN period  1
END period  1

BEGIN period  2
  1  temperature      21.00000000
  2  temperature      21.00000000
  3  temperature      21.00000000
  4  temperature      21.00000000
END period  2

BEGIN period  3
  1  temperature      11.00000000
  2  temperature      11.00000000
  3  temperature      11.00000000
  4  temperature      11.00000000
END period  3

BEGIN period  4
  1  temperature      21.00000000
  2  temperature      21.00000000
  3  temperature      21.00000000
  4  temperature      21.00000000
END period  4

BEGIN period  5
  1  temperature      11.00000000
  2  temperature      11.00000000
  3  temperature      11.00000000
  4  temperature      11.00000000
END period  5

BEGIN period  6
  1  temperature      21.00000000
  2  temperature      21.00000000
  3  temperature      21.00000000
  4  temperature      21.00000000
END period  6

BEGIN period  7
  1  temperature      11.00000000
  2  temperature      11.00000000
  3  temperature      11.00000000
  4  temperature      11.00000000
END period  7

BEGIN period  8
  1  temperature      21.00000000
  2  temperature      21.00000000
  3  temperature      21.00000000
  4  temperature      21.00000000
END period  8

BEGIN period  9
  1  temperature      11.00000000
  2  temperature      11.00000000
  3  temperature      11.00000000
  4  temperature      11.00000000
END period  9

BEGIN period  10
  1  temperature      21.00000000
  2  temperature      21.00000000
  3  temperature      21.00000000
  4  temperature      21.00000000
END period  10

BEGIN period  11
  1  temperature      11.00000000
  2  temperature      11.00000000
  3  temperature      11.00000000
  4  temperature      11.00000000
END period  11

BEGIN period  12
  1  temperature      21.00000000
  2  temperature      21.00000000
  3  temperature      21.00000000
  4  temperature      21.00000000
END period  12

BEGIN period  13
  1  temperature      11.00000000
  2  temperature      11.00000000
  3  temperature      11.00000000
  4  temperature      11.00000000
END period  13

BEGIN period  14
  1  temperature      21.00000000
  2  temperature      21.00000000
  3  temperature      21.00000000
  4  temperature      21.00000000
END period  14

BEGIN period  15
  1  temperature      11.00000000
  2  temperature      11.00000000
  3  temperature      11.00000000
  4  temperature      11.00000000
END period  15

BEGIN period  16
  1  temperature      21.00000000
  2  temperature      21.00000000
  3  temperature      21.00000000
  4  temperature      21.00000000
END period  16

BEGIN period  17
  1  temperature      11.00000000
  2  temperature      11.00000000
  3  temperature      11.00000000
  4  temperature      11.00000000
END period  17

BEGIN period  18
  1  temperature      21.00000000
  2  temperature      21.00000000
  3  temperature      21.00000000
  4  temperature      21.00000000
END period  18

BEGIN period  19
  1  temperature      11.00000000
  2  temperature      11.00000000
  3  temperature      11.00000000
  4  temperature      11.00000000
END period  19

BEGIN period  20
  1  temperature      21.00000000
  2  temperature      21.00000000
  3  temperature      21.00000000
  4  temperature      21.00000000
END period  20

BEGIN period  21
  1  temperature      11.00000000
  2  temperature      11.00000000
  3  temperature      11.00000000
  4  temperature      11.00000000
END period  21

BEGIN period  22
  1  temperature      21.00000000
  2  temperature      21.00000000
  3  temperature      21.00000000
  4  temperature      21.00000000
END period  22

BEGIN period  23
  1  temperature      11.00000000
  2  temperature      11.00000000
  3  temperature      11.00000000
  4  temperature      11.00000000
END period  23

BEGIN period  24
  1  temperature      21.00000000
  2  temperature      21.00000000
  3  temperature      21.00000000
  4  temperature      21.00000000
END period  24

BEGIN period  25
  1  temperature      11.00000000
  2  temperature      11.00000000
  3  temperature      11.00000000
  4  temperature      11.00000000
END period  25

BEGIN period  26
  1  temperature      21.00000000
  2  temperature      21.00000000
  3  temperature      21.00000000
  4  temperature      21.00000000
END period  26

BEGIN period  27
  1  temperature      11.00000000
  2  temperature      11.00000000
  3  temperature      11.00000000
  4  temperature      11.00000000
END period  27

BEGIN period  28
  1  temperature      21.00000000
  2  temperature      21.00000000
  3  temperature      21.00000000
  4  temperature      21.00000000
END period  28

BEGIN period  29
  1  temperature      11.00000000
  2  temperature      11.00000000
  3  temperature      11.00000000
  4  temperature      11.00000000
END period  29

BEGIN period  30
  1  temperature      21.00000000
  2  temperature      21.00000000
  3  temperature      21.00000000
  4  temperature      21.00000000
END period  30

BEGIN period  31
  1  temperature      11.00000000
  2  temperature      11.00000000
  3  temperature      11.00000000
  4  temperature      11.00000000
END period  31

BEGIN period  32
  1  temperature      21.00000000
  2  temperature      21.00000000
  3  temperature      21.00000000
  4  temperature      21.00000000
END period  32

BEGIN period  33
  1  temperature      11.00000000
  2  temperature      11.00000000
  3  temperature      11.00000000
  4  temperature      11.00000000
END period  33

BEGIN period  34
  1  temperature      21.00000000
  2  temperature      21.00000000
  3  temperature      21.00000000
  4  temperature      21.00000000
END period  34

BEGIN period  35
  1  temperature      11.00000000
  2  temperature      11.00000000
  3  temperature      11.00000000
  4  temperature      11.00000000
END period  35

BEGIN period  36
  1  temperature      21.00000000
  2  temperature      21.00000000
  3  temperature      21.00000000
  4  temperature      21.00000000
END period  36

BEGIN period  37
  1  temperature      11.00000000
  2  temperature      11.00000000
  3  temperature      11.00000000
  4  temperature      11.00000000
END period  37

BEGIN period  38
  1  temperature      21.00000000
  2  temperature      21.00000000
  3  temperature      21.00000000
  4  temperature      21.00000000
END period  38

BEGIN period  39
  1  temperature      11.00000000
  2  temperature      11.00000000
  3  temperature      11.00000000
  4  temperature      11.00000000
END period  39

BEGIN period  40
  1  temperature      21.00000000
  2  temperature      21.00000000
  3  temperature      21.00000000
  4  temperature      21.00000000
END period  40

BEGIN period  41
  1  temperature      11.00000000
  2  temperature      11.00000000
  3  temperature      11.00000000
  4  temperature      11.00000000
END period  41

BEGIN period  42
  1  temperature      21.00000000
  2  temperature      21.00000000
  3  temperature      21.00000000
  4  temperature      21.00000000
END period  42

BEGIN period  43
  1  temperature      11.00000000
  2  temperature      11.00000000
  3  temperature      11.00000000
  4  temperature      11.00000000
END period  43

BEGIN period  44
  1  temperature      21.00000000
  2  temperature      21.00000000
  3  temperature      21.00000000
  4  temperature      21.00000000
END period  44

BEGIN period  45
  1  temperature      11.00000000
  2  temperature      11.00000000
  3  temperature      11.00000000
  4  temperature      11.00000000
END period  45

BEGIN period  46
  1  temperature      21.00000000
  2  temperature      21.00000000
  3  temperature      21.00000000
  4  temperature      21.00000000
END period  46

BEGIN period  47
  1  temperature      11.00000000
  2  temperature      11.00000000
  3  temperature      11.00000000
  4  temperature      11.00000000
END period  47

BEGIN period  48
  1  temperature      21.00000000
  2  temperature      21.00000000
  3  temperature      21.00000000
  4  temperature      21.00000000
END period  48

BEGIN period  49
  1  temperature      11.00000000
  2  temperature      11.00000000
  3  temperature      11.00000000
  4  temperature      11.00000000
END period  49

BEGIN period  50
  1  temperature      21.00000000
  2  temperature      21.00000000
  3  temperature      21.00000000
  4  temperature      21.00000000
END period  50

BEGIN period  51
  1  temperature      11.00000000
  2  temperature      11.00000000
  3  temperature      11.00000000
  4  temperature      11.00000000
END period  51

BEGIN period  52
  1  temperature      21.00000000
  2  temperature      21.00000000
  3  temperature      21.00000000
  4  temperature      21.00000000
END period  52

BEGIN period  53
  1  temperature      11.00000000
  2  temperature      11.00000000
  3  temperature      11.00000000
  4  temperature      11.00000000
END period  53

BEGIN period  54
  1  temperature      21.00000000
  2  temperature      21.00000000
  3  temperature      21.00000000
  4  temperature      21.00000000
END period  54

BEGIN period  55
  1  temperature      11.00000000
  2  temperature      11.00000000
  3  temperature      11.00000000
  4  temperature      11.00000000
END period  55

BEGIN period  56
  1  temperature      21.00000000
  2  temperature      21.00000000
  3  temperature      21.00000000
  4  temperature      21.00000000
END period  56

BEGIN period  57
  1  temperature      11.00000000
  2  temperature      11.00000000
  3  temperature      11.00000000
  4  temperature      11.00000000
END period  57

BEGIN period  58
  1  temperature      21.00000000
  2  temperature      21.00000000
  3  temperature      21.00000000
  4  temperature      21.00000000
END period  58

BEGIN period  59
  1  temperature      11.00000000
  2  temperature      11.00000000
  3  temperature      11.00000000
  4  temperature      11.00000000
END period  59

BEGIN period  60
  1  temperature      21.00000000
  2  temperature      21.00000000
  3  temperature      21.00000000
  4  temperature      21.00000000
END period  60

BEGIN period  61
  1  temperature      11.00000000
  2  temperature      11.00000000
  3  temperature      11.00000000
  4  temperature      11.00000000
END period  61

BEGIN period  62
  1  temperature      21.00000000
  2  temperature      21.00000000
  3  temperature      21.00000000
  4  temperature      21.00000000
END period  62

