# File generated by Flopy version 3.10.0.dev5 on 10/29/2025 at 13:54:48.
BEGIN options
END options

BEGIN sources
    OPEN/CLOSE  'gwe.ssm_sources.txt'
END sources

BEGIN FILEINPUT
    OPEN/CLOSE  'gwe.ssm_fileinput.txt'
END FILEINPUT

