# File generated by Flopy version 3.10.0.dev5 on 10/29/2025 at 13:54:48.
BEGIN options
  DENSITY_WATER    1000.00000000
  HEAT_CAPACITY_WATER    4180.00000000
  LATENT_HEAT_VAPORIZATION  2.45400000E+06
END options

BEGIN griddata
  porosity
    OPEN/CLOSE  'gwe.est_porosity.txt'  FACTOR  1.0
  heat_capacity_solid
    OPEN/CLOSE  'gwe.est_heat_capacity_solid.txt'  FACTOR  1.0
  density_solid
    OPEN/CLOSE  'gwe.est_density_solid.txt'  FACTOR  1.0
END griddata

