# File generated by Flopy version 3.10.0.dev5 on 10/29/2025 at 13:54:48.
BEGIN options
END options

BEGIN dimensions
  MAXBOUND  4
END dimensions

BEGIN period  1
END period  1

BEGIN period  2
    OPEN/CLOSE  'gwe.well_inject.spc_perioddata_2.txt'
END period  2

BEGIN period  3
    OPEN/CLOSE  'gwe.well_inject.spc_perioddata_3.txt'
END period  3

BEGIN period  4
    OPEN/CLOSE  'gwe.well_inject.spc_perioddata_4.txt'
END period  4

BEGIN period  5
    OPEN/CLOSE  'gwe.well_inject.spc_perioddata_5.txt'
END period  5

BEGIN period  6
    OPEN/CLOSE  'gwe.well_inject.spc_perioddata_6.txt'
END period  6

BEGIN period  7
    OPEN/CLOSE  'gwe.well_inject.spc_perioddata_7.txt'
END period  7

BEGIN period  8
    OPEN/CLOSE  'gwe.well_inject.spc_perioddata_8.txt'
END period  8

BEGIN period  9
    OPEN/CLOSE  'gwe.well_inject.spc_perioddata_9.txt'
END period  9

BEGIN period  10
    OPEN/CLOSE  'gwe.well_inject.spc_perioddata_10.txt'
END period  10

BEGIN period  11
    OPEN/CLOSE  'gwe.well_inject.spc_perioddata_11.txt'
END period  11

BEGIN period  12
    OPEN/CLOSE  'gwe.well_inject.spc_perioddata_12.txt'
END period  12

BEGIN period  13
    OPEN/CLOSE  'gwe.well_inject.spc_perioddata_13.txt'
END period  13

BEGIN period  14
    OPEN/CLOSE  'gwe.well_inject.spc_perioddata_14.txt'
END period  14

BEGIN period  15
    OPEN/CLOSE  'gwe.well_inject.spc_perioddata_15.txt'
END period  15

BEGIN period  16
    OPEN/CLOSE  'gwe.well_inject.spc_perioddata_16.txt'
END period  16

BEGIN period  17
    OPEN/CLOSE  'gwe.well_inject.spc_perioddata_17.txt'
END period  17

BEGIN period  18
    OPEN/CLOSE  'gwe.well_inject.spc_perioddata_18.txt'
END period  18

BEGIN period  19
    OPEN/CLOSE  'gwe.well_inject.spc_perioddata_19.txt'
END period  19

BEGIN period  20
    OPEN/CLOSE  'gwe.well_inject.spc_perioddata_20.txt'
END period  20

BEGIN period  21
    OPEN/CLOSE  'gwe.well_inject.spc_perioddata_21.txt'
END period  21

BEGIN period  22
    OPEN/CLOSE  'gwe.well_inject.spc_perioddata_22.txt'
END period  22

BEGIN period  23
    OPEN/CLOSE  'gwe.well_inject.spc_perioddata_23.txt'
END period  23

BEGIN period  24
    OPEN/CLOSE  'gwe.well_inject.spc_perioddata_24.txt'
END period  24

BEGIN period  25
    OPEN/CLOSE  'gwe.well_inject.spc_perioddata_25.txt'
END period  25

BEGIN period  26
    OPEN/CLOSE  'gwe.well_inject.spc_perioddata_26.txt'
END period  26

BEGIN period  27
    OPEN/CLOSE  'gwe.well_inject.spc_perioddata_27.txt'
END period  27

BEGIN period  28
    OPEN/CLOSE  'gwe.well_inject.spc_perioddata_28.txt'
END period  28

BEGIN period  29
    OPEN/CLOSE  'gwe.well_inject.spc_perioddata_29.txt'
END period  29

BEGIN period  30
    OPEN/CLOSE  'gwe.well_inject.spc_perioddata_30.txt'
END period  30

BEGIN period  31
    OPEN/CLOSE  'gwe.well_inject.spc_perioddata_31.txt'
END period  31

BEGIN period  32
    OPEN/CLOSE  'gwe.well_inject.spc_perioddata_32.txt'
END period  32

BEGIN period  33
    OPEN/CLOSE  'gwe.well_inject.spc_perioddata_33.txt'
END period  33

BEGIN period  34
    OPEN/CLOSE  'gwe.well_inject.spc_perioddata_34.txt'
END period  34

BEGIN period  35
    OPEN/CLOSE  'gwe.well_inject.spc_perioddata_35.txt'
END period  35

BEGIN period  36
    OPEN/CLOSE  'gwe.well_inject.spc_perioddata_36.txt'
END period  36

BEGIN period  37
    OPEN/CLOSE  'gwe.well_inject.spc_perioddata_37.txt'
END period  37

BEGIN period  38
    OPEN/CLOSE  'gwe.well_inject.spc_perioddata_38.txt'
END period  38

BEGIN period  39
    OPEN/CLOSE  'gwe.well_inject.spc_perioddata_39.txt'
END period  39

BEGIN period  40
    OPEN/CLOSE  'gwe.well_inject.spc_perioddata_40.txt'
END period  40

BEGIN period  41
    OPEN/CLOSE  'gwe.well_inject.spc_perioddata_41.txt'
END period  41

BEGIN period  42
    OPEN/CLOSE  'gwe.well_inject.spc_perioddata_42.txt'
END period  42

BEGIN period  43
    OPEN/CLOSE  'gwe.well_inject.spc_perioddata_43.txt'
END period  43

BEGIN period  44
    OPEN/CLOSE  'gwe.well_inject.spc_perioddata_44.txt'
END period  44

BEGIN period  45
    OPEN/CLOSE  'gwe.well_inject.spc_perioddata_45.txt'
END period  45

BEGIN period  46
    OPEN/CLOSE  'gwe.well_inject.spc_perioddata_46.txt'
END period  46

BEGIN period  47
    OPEN/CLOSE  'gwe.well_inject.spc_perioddata_47.txt'
END period  47

BEGIN period  48
    OPEN/CLOSE  'gwe.well_inject.spc_perioddata_48.txt'
END period  48

BEGIN period  49
    OPEN/CLOSE  'gwe.well_inject.spc_perioddata_49.txt'
END period  49

BEGIN period  50
    OPEN/CLOSE  'gwe.well_inject.spc_perioddata_50.txt'
END period  50

BEGIN period  51
    OPEN/CLOSE  'gwe.well_inject.spc_perioddata_51.txt'
END period  51

BEGIN period  52
    OPEN/CLOSE  'gwe.well_inject.spc_perioddata_52.txt'
END period  52

BEGIN period  53
    OPEN/CLOSE  'gwe.well_inject.spc_perioddata_53.txt'
END period  53

BEGIN period  54
    OPEN/CLOSE  'gwe.well_inject.spc_perioddata_54.txt'
END period  54

BEGIN period  55
    OPEN/CLOSE  'gwe.well_inject.spc_perioddata_55.txt'
END period  55

BEGIN period  56
    OPEN/CLOSE  'gwe.well_inject.spc_perioddata_56.txt'
END period  56

BEGIN period  57
    OPEN/CLOSE  'gwe.well_inject.spc_perioddata_57.txt'
END period  57

BEGIN period  58
    OPEN/CLOSE  'gwe.well_inject.spc_perioddata_58.txt'
END period  58

BEGIN period  59
    OPEN/CLOSE  'gwe.well_inject.spc_perioddata_59.txt'
END period  59

BEGIN period  60
    OPEN/CLOSE  'gwe.well_inject.spc_perioddata_60.txt'
END period  60

BEGIN period  61
    OPEN/CLOSE  'gwe.well_inject.spc_perioddata_61.txt'
END period  61

