# File generated by Flopy version 3.10.0.dev5 on 10/29/2025 at 13:54:48.
BEGIN options
  BUDGET  FILEOUT  gwe.cbc
  TEMPERATURE  FILEOUT  gwe.ucn
END options

BEGIN period  1
  SAVE  temperature  last
END period  1

