# File generated by Flopy version 3.10.0.dev5 on 10/29/2025 at 13:54:48.
BEGIN options
END options

BEGIN griddata
  alh
    OPEN/CLOSE  'gwe.cnd_alh.txt'  FACTOR  1.0
  ath1
    OPEN/CLOSE  'gwe.cnd_ath1.txt'  FACTOR  1.0
  ktw
    OPEN/CLOSE  'gwe.cnd_ktw.txt'  FACTOR  1.0
  kts
    OPEN/CLOSE  'gwe.cnd_kts.txt'  FACTOR  1.0
END griddata

