# File generated by Flopy version 3.10.0.dev5 on 10/29/2025 at 13:54:47.
BEGIN OPTIONS
  AUXILIARY  temperature
  SAVE_FLOWS
  OBS6 FILEIN gwf.riv.obs
END OPTIONS

BEGIN DIMENSIONS
  MAXBOUND  80
END DIMENSIONS

BEGIN PERIOD  1
    OPEN/CLOSE  'gwf.riv_stress_period_data_1.txt'
END PERIOD  1

