# File generated by Flopy version 3.10.0.dev5 on 10/29/2025 at 13:54:47.
BEGIN OPTIONS
  AUXILIARY  temperature
  SAVE_FLOWS
END OPTIONS

BEGIN DIMENSIONS
  MAXBOUND  4
END DIMENSIONS

BEGIN PERIOD  2
    OPEN/CLOSE  'gwf.ext.wel_stress_period_data_2.txt'
END PERIOD  2

