BEGIN OPTIONS
  AUXILIARY temperature
  BOUNDNAMES
  SAVE_FLOWS
  OBS6 FILEIN gwf.riv.obs
END OPTIONS

BEGIN DIMENSIONS
  MAXBOUND 80
END DIMENSIONS

BEGIN PERIOD  1
    OPEN/CLOSE  'gwf.riv_stress_period_data_1.txt'
END PERIOD  1

