# File generated by Flopy version 3.10.0.dev5 on 10/29/2025 at 13:54:47.
BEGIN OPTIONS
  READASARRAYS
  AUXILIARY  temperature
  SAVE_FLOWS
END OPTIONS

BEGIN PERIOD  1
  recharge
    OPEN/CLOSE  'gwf.rch_recharge_1.txt'  FACTOR  1.0
  temperature
    OPEN/CLOSE  'gwf.rch_aux_1.txt'  FACTOR  1.0
END PERIOD  1

