# File generated by Flopy version 3.10.0.dev5 on 10/29/2025 at 13:54:47.
BEGIN OPTIONS
END OPTIONS

BEGIN GRIDDATA
  strt
    OPEN/CLOSE  'gwf.ic_strt.txt'  FACTOR  1.0
END GRIDDATA

