# File generated by Flopy version 3.10.0.dev5 on 10/29/2025 at 13:54:47.
BEGIN OPTIONS
  SAVE_FLOWS
  SAVE_SPECIFIC_DISCHARGE
  SAVE_SATURATION
END OPTIONS

BEGIN GRIDDATA
  icelltype
    OPEN/CLOSE  'gwf.npf_icelltype.txt'  FACTOR  1
  k
    OPEN/CLOSE  'gwf.npf_k.txt'  FACTOR  1.0
END GRIDDATA

