# File generated by Flopy version 3.10.0.dev5 on 10/29/2025 at 13:54:47.
BEGIN OPTIONS
  BUDGET  FILEOUT  gwf.bud
  HEAD  FILEOUT  gwf.hds
END OPTIONS

BEGIN PERIOD  1
  SAVE  head  last
  SAVE  budget  last
END PERIOD  1

BEGIN PERIOD  2
  SAVE  head  last
  SAVE  budget  last
END PERIOD  2

BEGIN PERIOD  3
END PERIOD  3

