# File generated by Flopy version 3.10.0.dev5 on 10/29/2025 at 13:54:46.
BEGIN OPTIONS
END OPTIONS

BEGIN PACKAGES
  ic6  ./gwf.ic
  npf6  ./gwf.npf
  disv6  ./gwf.disv
  chd6  ./gwf.chd  chd
  riv6  ./gwf.riv  riv
  rch6  ./gwf.rch  rch
  wel6  ./gwf.inj.wel  well_inject
  wel6  ./gwf.ext.wel  well_extract
  oc6  ./gwf.oc
  obs6  ./gwf.obs  obs
END PACKAGES

