# File generated by Flopy version 3.10.0.dev5 on 10/29/2025 at 13:54:46.
BEGIN options
END options

BEGIN timing
  TDIS6  mfsim.tdis
END timing

BEGIN models
  gwf6  gwf.nam  gwf
  gwe6  gwe.nam  gwe
END models

BEGIN exchanges
  gwf6-gwe6  mfsim.gwfgwe  gwf  gwe
END exchanges

BEGIN solutiongroup  1
  ims6  gwf.ims  gwf
  ims6  gwe.ims  gwe
END solutiongroup  1

