# File generated by Flopy version 3.10.0.dev5 on 10/29/2025 at 13:34:03.
BEGIN OPTIONS
  COMPLEXITY  moderate
END OPTIONS

BEGIN NONLINEAR
  OUTER_DVCLOSE  1.00000000E-04
  OUTER_MAXIMUM  200
END NONLINEAR

BEGIN LINEAR
  INNER_MAXIMUM  50
  INNER_DVCLOSE  1.00000000E-04
  INNER_RCLOSE       0.01000000
  LINEAR_ACCELERATION  cg
END LINEAR

