# File generated by Flopy version 3.10.0.dev5 on 10/29/2025 at 13:54:46.
BEGIN options
  TIME_UNITS  seconds
END options

BEGIN dimensions
  NPER  61
END dimensions

BEGIN perioddata
       1.00000000  1       1.00000000  months
  1.84086000E+07  14       1.00000000  months
  1.31490000E+07  10       1.00000000  months
  1.84086000E+07  14       1.00000000  months
  1.31490000E+07  10       1.00000000  months
  1.84086000E+07  14       1.00000000  months
  1.31490000E+07  10       1.00000000  months
  1.84086000E+07  14       1.00000000  months
  1.31490000E+07  10       1.00000000  months
  1.84086000E+07  14       1.00000000  months
  1.31490000E+07  10       1.00000000  months
  1.84086000E+07  14       1.00000000  months
  1.31490000E+07  10       1.00000000  months
  1.84086000E+07  14       1.00000000  months
  1.31490000E+07  10       1.00000000
  1.84086000E+07  14       1.00000000
  1.31490000E+07  10       1.00000000
  1.84086000E+07  14       1.00000000
  1.31490000E+07  10       1.00000000
  1.84086000E+07  14       1.00000000
  1.31490000E+07  10       1.00000000
  1.84086000E+07  14       1.00000000
  1.31490000E+07  10       1.00000000
  1.84086000E+07  14       1.00000000
  1.31490000E+07  10       1.00000000
  1.84086000E+07  14       1.00000000
  1.31490000E+07  10       1.00000000
  1.84086000E+07  14       1.00000000
  1.31490000E+07  10       1.00000000
  1.84086000E+07  14       1.00000000
  1.31490000E+07  10       1.00000000
  1.84086000E+07  14       1.00000000
  1.31490000E+07  10       1.00000000
  1.84086000E+07  14       1.00000000
  1.31490000E+07  10       1.00000000
  1.84086000E+07  14       1.00000000
  1.31490000E+07  10       1.00000000
  1.84086000E+07  14       1.00000000
  1.31490000E+07  10       1.00000000
  1.84086000E+07  14       1.00000000
  1.31490000E+07  10       1.00000000
  1.84086000E+07  14       1.00000000
  1.31490000E+07  10       1.00000000
  1.84086000E+07  14       1.00000000
  1.31490000E+07  10       1.00000000
  1.84086000E+07  14       1.00000000
  1.31490000E+07  10       1.00000000
  1.84086000E+07  14       1.00000000
  1.31490000E+07  10       1.00000000
  1.84086000E+07  14       1.00000000
  1.31490000E+07  10       1.00000000
  1.84086000E+07  14       1.00000000
  1.31490000E+07  10       1.00000000
  1.84086000E+07  14       1.00000000
  1.31490000E+07  10       1.00000000
  1.84086000E+07  14       1.00000000
  1.31490000E+07  10       1.00000000
  1.84086000E+07  14       1.00000000
  1.31490000E+07  10       1.00000000
  1.84086000E+07  14       1.00000000
  1.31490000E+07  10       1.00000000
END perioddata

